136019
  -OEChem-06261905113D

 48 54  0     0  0  0  0  0  0999 V2000
   -1.0374   -0.9801    0.0002 C   0  0  0  0  0  0  0  0  0  0  0  0
   -1.3703    0.3988    0.0001 C   0  0  0  0  0  0  0  0  0  0  0  0
    0.3398   -1.3862    0.0001 C   0  0  0  0  0  0  0  0  0  0  0  0
   -0.3301    1.3884    0.0001 C   0  0  0  0  0  0  0  0  0  0  0  0
    1.3675   -0.4083    0.0004 C   0  0  0  0  0  0  0  0  0  0  0  0
    1.0305    0.9874    0.0002 C   0  0  0  0  0  0  0  0  0  0  0  0
   -2.1126   -1.9168    0.0005 C   0  0  0  0  0  0  0  0  0  0  0  0
   -2.7545    0.7415   -0.0003 C   0  0  0  0  0  0  0  0  0  0  0  0
    0.7350   -2.7563   -0.0002 C   0  0  0  0  0  0  0  0  0  0  0  0
   -0.6037    2.7880    0.0001 C   0  0  0  0  0  0  0  0  0  0  0  0
    2.7163   -0.8712    0.0009 C   0  0  0  0  0  0  0  0  0  0  0  0
    2.0194    2.0148    0.0000 C   0  0  0  0  0  0  0  0  0  0  0  0
   -3.4699   -1.5558    0.0003 C   0  0  0  0  0  0  0  0  0  0  0  0
   -3.7976   -0.1990   -0.0002 C   0  0  0  0  0  0  0  0  0  0  0  0
    2.0711   -3.1893   -0.0001 C   0  0  0  0  0  0  0  0  0  0  0  0
    0.3876    3.7830    0.0000 C   0  0  0  0  0  0  0  0  0  0  0  0
    3.0823   -2.2272    0.0006 C   0  0  0  0  0  0  0  0  0  0  0  0
    1.7265    3.3883   -0.0002 C   0  0  0  0  0  0  0  0  0  0  0  0
   -4.4996   -2.5149    0.0006 C   0  0  0  0  0  0  0  0  0  0  0  0
   -5.1515    0.1846   -0.0007 C   0  0  0  0  0  0  0  0  0  0  0  0
    2.4159   -4.5536   -0.0007 C   0  0  0  0  0  0  0  0  0  0  0  0
    0.0718    5.1543    0.0000 C   0  0  0  0  0  0  0  0  0  0  0  0
    4.4279   -2.6393    0.0006 C   0  0  0  0  0  0  0  0  0  0  0  0
    2.7357    4.3689   -0.0006 C   0  0  0  0  0  0  0  0  0  0  0  0
   -5.8386   -2.1248    0.0001 C   0  0  0  0  0  0  0  0  0  0  0  0
   -6.1650   -0.7735   -0.0005 C   0  0  0  0  0  0  0  0  0  0  0  0
    3.7524   -4.9522   -0.0010 C   0  0  0  0  0  0  0  0  0  0  0  0
    1.0791    6.1189    0.0001 C   0  0  0  0  0  0  0  0  0  0  0  0
    4.7595   -3.9939   -0.0003 C   0  0  0  0  0  0  0  0  0  0  0  0
    2.4126    5.7256   -0.0002 C   0  0  0  0  0  0  0  0  0  0  0  0
   -1.9091   -2.9855    0.0009 H   0  0  0  0  0  0  0  0  0  0  0  0
   -3.0611    1.7853   -0.0006 H   0  0  0  0  0  0  0  0  0  0  0  0
   -0.0157   -3.5436   -0.0008 H   0  0  0  0  0  0  0  0  0  0  0  0
   -1.6310    3.1460    0.0003 H   0  0  0  0  0  0  0  0  0  0  0  0
    3.5401   -0.1606    0.0013 H   0  0  0  0  0  0  0  0  0  0  0  0
    3.0767    1.7583   -0.0001 H   0  0  0  0  0  0  0  0  0  0  0  0
   -4.2640   -3.5772    0.0011 H   0  0  0  0  0  0  0  0  0  0  0  0
   -5.4265    1.2373   -0.0011 H   0  0  0  0  0  0  0  0  0  0  0  0
    1.6417   -5.3182   -0.0013 H   0  0  0  0  0  0  0  0  0  0  0  0
   -0.9660    5.4814    0.0002 H   0  0  0  0  0  0  0  0  0  0  0  0
    5.2299   -1.9041    0.0011 H   0  0  0  0  0  0  0  0  0  0  0  0
    3.7850    4.0808   -0.0007 H   0  0  0  0  0  0  0  0  0  0  0  0
   -6.6236   -2.8751    0.0003 H   0  0  0  0  0  0  0  0  0  0  0  0
   -7.2058   -0.4639   -0.0008 H   0  0  0  0  0  0  0  0  0  0  0  0
    4.0048   -6.0083   -0.0017 H   0  0  0  0  0  0  0  0  0  0  0  0
    0.8218    7.1738    0.0004 H   0  0  0  0  0  0  0  0  0  0  0  0
    5.8018   -4.2986   -0.0004 H   0  0  0  0  0  0  0  0  0  0  0  0
    3.2011    6.4724   -0.0003 H   0  0  0  0  0  0  0  0  0  0  0  0
  1  2  1  0  0  0  0
  1  3  1  0  0  0  0
  1  7  2  0  0  0  0
  2  4  1  0  0  0  0
  2  8  2  0  0  0  0
  3  5  1  0  0  0  0
  3  9  2  0  0  0  0
  4  6  1  0  0  0  0
  4 10  2  0  0  0  0
  5  6  1  0  0  0  0
  5 11  2  0  0  0  0
  6 12  2  0  0  0  0
  7 13  1  0  0  0  0
  7 31  1  0  0  0  0
  8 14  1  0  0  0  0
  8 32  1  0  0  0  0
  9 15  1  0  0  0  0
  9 33  1  0  0  0  0
 10 16  1  0  0  0  0
 10 34  1  0  0  0  0
 11 17  1  0  0  0  0
 11 35  1  0  0  0  0
 12 18  1  0  0  0  0
 12 36  1  0  0  0  0
 13 14  1  0  0  0  0
 13 19  2  0  0  0  0
 14 20  2  0  0  0  0
 15 17  1  0  0  0  0
 15 21  2  0  0  0  0
 16 18  1  0  0  0  0
 16 22  2  0  0  0  0
 17 23  2  0  0  0  0
 18 24  2  0  0  0  0
 19 25  1  0  0  0  0
 19 37  1  0  0  0  0
 20 26  1  0  0  0  0
 20 38  1  0  0  0  0
 21 27  1  0  0  0  0
 21 39  1  0  0  0  0
 22 28  1  0  0  0  0
 22 40  1  0  0  0  0
 23 29  1  0  0  0  0
 23 41  1  0  0  0  0
 24 30  1  0  0  0  0
 24 42  1  0  0  0  0
 25 26  2  0  0  0  0
 25 43  1  0  0  0  0
 26 44  1  0  0  0  0
 27 29  2  0  0  0  0
 27 45  1  0  0  0  0
 28 30  2  0  0  0  0
 28 46  1  0  0  0  0
 29 47  1  0  0  0  0
 30 48  1  0  0  0  0
M  END
> <PUBCHEM_COMPOUND_CID>
136019

> <PUBCHEM_CONFORMER_RMSD>
0.6

> <PUBCHEM_CONFORMER_DIVERSEORDER>
1

> <PUBCHEM_MMFF94_PARTIAL_CHARGES>
36
10 -0.15
11 -0.15
12 -0.15
19 -0.15
20 -0.15
21 -0.15
22 -0.15
23 -0.15
24 -0.15
25 -0.15
26 -0.15
27 -0.15
28 -0.15
29 -0.15
30 -0.15
31 0.15
32 0.15
33 0.15
34 0.15
35 0.15
36 0.15
37 0.15
38 0.15
39 0.15
40 0.15
41 0.15
42 0.15
43 0.15
44 0.15
45 0.15
46 0.15
47 0.15
48 0.15
7 -0.15
8 -0.15
9 -0.15

> <PUBCHEM_EFFECTIVE_ROTOR_COUNT>
0

> <PUBCHEM_PHARMACOPHORE_FEATURES>
7
6 1 2 3 4 5 6 rings
6 1 2 7 8 13 14 rings
6 13 14 19 20 25 26 rings
6 15 17 21 23 27 29 rings
6 16 18 22 24 28 30 rings
6 3 5 9 11 15 17 rings
6 4 6 10 12 16 18 rings

> <PUBCHEM_HEAVY_ATOM_COUNT>
30

> <PUBCHEM_ATOM_DEF_STEREO_COUNT>
0

> <PUBCHEM_ATOM_UDEF_STEREO_COUNT>
0

> <PUBCHEM_BOND_DEF_STEREO_COUNT>
0

> <PUBCHEM_BOND_UDEF_STEREO_COUNT>
0

> <PUBCHEM_ISOTOPIC_ATOM_COUNT>
0

> <PUBCHEM_COMPONENT_COUNT>
1

> <PUBCHEM_CACTVS_TAUTO_COUNT>
1

> <PUBCHEM_CONFORMER_ID>
0002135300000001

> <PUBCHEM_MMFF94_ENERGY>
120.9479

> <PUBCHEM_FEATURE_SELFOVERLAP>
35.657

> <PUBCHEM_SHAPE_FINGERPRINT>
10050765 1 17689998930633973318
10074138 170 17255091477741057042
10319926 262 17474646375530762762
10411042 1 18338798888451225539
10622 236 17772726477475868247
1100329 8 18122629353723315569
11056379 131 17691415109477219134
11136131 41 17902779001319497210
11763715 3 18121805857894238022
12107183 9 18198353866795648633
12788726 201 17903944174401668526
13140716 1 18194682566345228417
13248334 5 18338797917629841434
13590594 115 18193848046110990833
13692114 37 16896781477187325201
13757389 114 17257953498319111054
13785724 45 18269564853411217599
138480 1 18410575084663085409
13955234 65 18266465480487936843
14028597 1 17484271860964502851
14068700 686 18053936265699009362
14394314 77 18339651014120095216
14790565 3 17762056944506570437
14866123 147 17547007429901616331
15042514 8 17979074877468751915
15081414 286 18411416211121787123
15198563 99 17979917112034031637
15230672 131 17687468275821029756
15320467 1 18338797930514743296
15400415 2 17762337320800828757
15439362 3 18337668745701815205
15664445 248 18270980014986102582
15705408 1 18338797921940640860
15775530 1 17897977266616006525
15890870 6 17762338415790460621
15927050 60 17836651090690977278
16087824 20 17834115248148688253
16992752 21 18267032648606437734
16993438 75 17326626799614187961
17492 89 18338797927164950619
17980427 26 18125434456776916351
18681886 176 18412539903469096714
19301679 30 17833274121405520747
20101258 96 18194972833130647674
20775438 99 17833504039367756181
21033650 10 17543664953393389574
21049683 271 18260842517545743366
21133410 127 17969492896491828085
21133410 171 17178225814219873339
21133410 221 17047334444374696690
21133410 32 16228905447235453562
21796203 349 17977145372217633491
22311459 1 18338516459843549448
23559900 14 18410004451746797499
23929065 36 17833247745979162098
24771293 8 18129366250676875458
24771750 20 18044668734820838692
255183 313 17407411234653227001
283562 15 17901107421401371890
3091708 16 9213476981960605835
3103668 31 17831017923671528901
335352 9 18266458699336145047
3380486 145 18121798131211006433
3534868 343 18191037711650055182
38695281 34 17833830847491536513
4015057 19 18408036308890625507
4058900 60 17978524353151454993
4409770 3 17614844016006930469
5309563 4 18339359652224335671
5385378 56 18194971961959376257
563151 97 17691396830481237207
613672 6 18121471623354484071
653340 110 17834104248251926066
6669772 16 17981052126135964612
6673363 416 18267884796320265406
6679774 75 17974832167836103746
6695519 79 17547314632001495379
6697151 62 18191841502195078151
6700243 42 17627539050444703302
77188 2 18338798914062260711
79837 15 17113537017601397714
9777508 108 17474660651505090570
9981440 41 17688589781310449835

> <PUBCHEM_SHAPE_MULTIPOLES>
617.39
9.6
9.6
0.62
5.14
17.69
0
-17.69
0
-5.14
0
0
0
0

> <PUBCHEM_SHAPE_SELFOVERLAP>
1450.235

> <PUBCHEM_SHAPE_VOLUME>
282.8

> <PUBCHEM_COORDINATE_TYPE>
2
5
10

$$$$
