3019594
  -OEChem-07011902403D

 33 34  0     0  0  0  0  0  0999 V2000
   -2.5580   -0.5668   -0.0003 C   0  0  0  0  0  0  0  0  0  0  0  0
   -1.1410   -0.0946    0.0031 C   0  0  0  0  0  0  0  0  0  0  0  0
   -2.6951   -1.9426    0.7210 C   0  0  0  0  0  0  0  0  0  0  0  0
   -3.0905   -0.7415   -1.4555 C   0  0  0  0  0  0  0  0  0  0  0  0
   -3.5807    0.3806    0.7082 C   0  0  0  0  0  0  0  0  0  0  0  0
   -0.8394    1.2641    0.0062 C   0  0  0  0  0  0  0  0  0  0  0  0
   -0.1133   -1.0382    0.0002 C   0  0  0  0  0  0  0  0  0  0  0  0
    1.2315   -0.6330    0.0002 C   0  0  0  0  0  0  0  0  0  0  0  0
    1.5381    0.7488    0.0033 C   0  0  0  0  0  0  0  0  0  0  0  0
    0.4909    1.6844    0.0064 C   0  0  0  0  0  0  0  0  0  0  0  0
   -1.9234    2.2916    0.0086 C   0  0  0  0  0  0  0  0  0  0  0  0
    2.2786   -1.5687   -0.0027 C   0  0  0  0  0  0  0  0  0  0  0  0
    2.8829    1.1539    0.0035 C   0  0  0  0  0  0  0  0  0  0  0  0
    3.6089   -1.1483   -0.0026 C   0  0  0  0  0  0  0  0  0  0  0  0
    3.9106    0.2104    0.0005 C   0  0  0  0  0  0  0  0  0  0  0  0
   -3.7482   -2.2280    0.8353 H   0  0  0  0  0  0  0  0  0  0  0  0
   -2.2389   -2.7636    0.1574 H   0  0  0  0  0  0  0  0  0  0  0  0
   -2.2550   -1.9153    1.7248 H   0  0  0  0  0  0  0  0  0  0  0  0
   -2.4838   -1.4683   -2.0087 H   0  0  0  0  0  0  0  0  0  0  0  0
   -4.1261   -1.1002   -1.4596 H   0  0  0  0  0  0  0  0  0  0  0  0
   -3.0567    0.1999   -2.0144 H   0  0  0  0  0  0  0  0  0  0  0  0
   -4.4870   -0.1933    0.9539 H   0  0  0  0  0  0  0  0  0  0  0  0
   -3.2168    0.7292    1.6805 H   0  0  0  0  0  0  0  0  0  0  0  0
   -3.9960    1.1818    0.0952 H   0  0  0  0  0  0  0  0  0  0  0  0
   -0.3107   -2.1049   -0.0314 H   0  0  0  0  0  0  0  0  0  0  0  0
    0.7233    2.7481    0.0111 H   0  0  0  0  0  0  0  0  0  0  0  0
   -2.3802    2.4497    0.9866 H   0  0  0  0  0  0  0  0  0  0  0  0
   -1.4712    3.2715   -0.2079 H   0  0  0  0  0  0  0  0  0  0  0  0
   -2.6146    2.1761   -0.8289 H   0  0  0  0  0  0  0  0  0  0  0  0
    2.0675   -2.6361   -0.0049 H   0  0  0  0  0  0  0  0  0  0  0  0
    3.1421    2.2106    0.0060 H   0  0  0  0  0  0  0  0  0  0  0  0
    4.4095   -1.8823   -0.0049 H   0  0  0  0  0  0  0  0  0  0  0  0
    4.9465    0.5369    0.0006 H   0  0  0  0  0  0  0  0  0  0  0  0
  1  2  1  0  0  0  0
  1  3  1  0  0  0  0
  1  4  1  0  0  0  0
  1  5  1  0  0  0  0
  2  6  1  0  0  0  0
  2  7  2  0  0  0  0
  3 16  1  0  0  0  0
  3 17  1  0  0  0  0
  3 18  1  0  0  0  0
  4 19  1  0  0  0  0
  4 20  1  0  0  0  0
  4 21  1  0  0  0  0
  5 22  1  0  0  0  0
  5 23  1  0  0  0  0
  5 24  1  0  0  0  0
  6 10  2  0  0  0  0
  6 11  1  0  0  0  0
  7  8  1  0  0  0  0
  7 25  1  0  0  0  0
  8  9  1  0  0  0  0
  8 12  2  0  0  0  0
  9 10  1  0  0  0  0
  9 13  2  0  0  0  0
 10 26  1  0  0  0  0
 11 27  1  0  0  0  0
 11 28  1  0  0  0  0
 11 29  1  0  0  0  0
 12 14  1  0  0  0  0
 12 30  1  0  0  0  0
 13 15  1  0  0  0  0
 13 31  1  0  0  0  0
 14 15  2  0  0  0  0
 14 32  1  0  0  0  0
 15 33  1  0  0  0  0
M  END
> <PUBCHEM_COMPOUND_CID>
3019594

> <PUBCHEM_CONFORMER_RMSD>
0.4

> <PUBCHEM_CONFORMER_DIVERSEORDER>
1

> <PUBCHEM_MMFF94_PARTIAL_CHARGES>
16
1 0.14
10 -0.15
11 0.14
12 -0.15
13 -0.15
14 -0.15
15 -0.15
2 -0.14
25 0.15
26 0.15
30 0.15
31 0.15
32 0.15
33 0.15
6 -0.14
7 -0.15

> <PUBCHEM_EFFECTIVE_ROTOR_COUNT>
1

> <PUBCHEM_PHARMACOPHORE_FEATURES>
3
4 1 3 4 5 hydrophobe
6 2 6 7 8 9 10 rings
6 8 9 12 13 14 15 rings

> <PUBCHEM_HEAVY_ATOM_COUNT>
15

> <PUBCHEM_ATOM_DEF_STEREO_COUNT>
0

> <PUBCHEM_ATOM_UDEF_STEREO_COUNT>
0

> <PUBCHEM_BOND_DEF_STEREO_COUNT>
0

> <PUBCHEM_BOND_UDEF_STEREO_COUNT>
0

> <PUBCHEM_ISOTOPIC_ATOM_COUNT>
0

> <PUBCHEM_COMPONENT_COUNT>
1

> <PUBCHEM_CACTVS_TAUTO_COUNT>
1

> <PUBCHEM_CONFORMER_ID>
002E134A00000001

> <PUBCHEM_MMFF94_ENERGY>
69.0252

> <PUBCHEM_FEATURE_SELFOVERLAP>
15.249

> <PUBCHEM_SHAPE_FINGERPRINT>
10608611 8 18411134710634014784
10618630 7 18408608079862210884
10967382 1 18410294674901645706
11132069 177 18413103957265042408
11206711 2 18408884010131315748
11471102 20 18409726278903234948
11769659 78 18412820266232912854
12032990 46 18409454721153963546
12251169 10 18341905077745516425
12932764 1 17703785942286179160
13140716 1 17978508968520136960
13221675 6 18411421708669330930
13296908 3 18334859458410650123
13583140 156 14261349124387832662
14115302 16 17967542289299971423
14144814 61 18411138039122594186
14289901 80 14620515678658509430
14325111 11 18411138004984544656
14576447 43 17985531497742224023
15196674 1 18410857663472764968
15309172 13 17917715707647068959
15442244 35 18194119608245140114
15536298 74 18343584036522924704
16945 1 18338233872586529068
17844478 74 18187090554683205753
18186145 218 17894347782858665018
19107657 46 18410014372546277142
19591789 44 15605132305971729824
200 152 18130495401362024215
20201158 50 18335417988853227802
20281475 54 18408889559271162330
20510252 161 18271527481271399681
20525323 117 18341047428368441181
20645477 70 18413383224481279375
20871998 184 18201158745852130861
21267235 1 18410866446728721802
21501502 16 18338797810582875528
21501925 9 18337096905086924658
221490 88 18409175424158182186
22721475 48 18410295825900049004
2334 1 18410855426011230924
23402539 116 18411409614278821878
23402655 69 18340764849490469540
23463225 33 18409732846187909188
23559900 14 18268987580311628282
25610 137 18335988669821427028
2748010 2 18339920416202362020
3312278 4 18334859445641597923
335352 9 17978230452686137972
5104073 3 18411981356167377482
57096353 35 18410295847797009148
69090 78 18268989783165789865
7364860 26 18268993253478460952
8809292 202 18259991491230102971
9709674 26 18412547570132834894

> <PUBCHEM_SHAPE_MULTIPOLES>
308.69
6.47
2.06
0.83
1.82
0.41
-0.16
-1.32
0.03
-0.51
0.14
-0.65
-0.16
-0.04

> <PUBCHEM_SHAPE_SELFOVERLAP>
665.103

> <PUBCHEM_SHAPE_VOLUME>
165.2

> <PUBCHEM_COORDINATE_TYPE>
2
5
10

$$$$
