3036235
  -OEChem-05061900443D

 61 63  0     0  0  0  0  0  0999 V2000
    0.5549   -1.1817    0.6700 S   0  0  0  0  0  0  0  0  0  0  0  0
    1.2614    1.5250   -1.2654 O   0  0  0  0  0  0  0  0  0  0  0  0
   -3.2859   -2.9810    1.7564 O   0  0  0  0  0  0  0  0  0  0  0  0
    1.1770   -3.6279   -0.0988 O   0  0  0  0  0  0  0  0  0  0  0  0
    3.2737    1.1644   -2.3237 O   0  0  0  0  0  0  0  0  0  0  0  0
   -2.4190   -1.3119    0.3557 N   0  0  0  0  0  0  0  0  0  0  0  0
   -5.6965    1.6342   -0.5930 N   0  0  0  0  0  0  0  0  0  0  0  0
   -6.6223    0.0962    1.0146 N   0  0  0  0  0  0  0  0  0  0  0  0
   -3.3470    1.8087   -0.8643 N   0  0  0  0  0  0  0  0  0  0  0  0
   -1.7221   -1.0495   -0.7987 C   0  0  0  0  0  0  0  0  0  0  0  0
   -2.8790   -0.1830    1.1513 C   0  0  0  0  0  0  0  0  0  0  0  0
   -0.3730   -0.9290   -0.8056 C   0  0  0  0  0  0  0  0  0  0  0  0
    0.4365   -0.6214   -2.0550 C   0  0  0  0  0  0  0  0  0  0  0  0
   -4.2500    0.2716    0.7418 C   0  0  0  0  0  0  0  0  0  0  0  0
    0.5702    0.8765   -2.3245 C   0  0  0  0  0  0  0  0  0  0  0  0
   -2.6077   -0.8998   -2.0062 C   0  0  0  0  0  0  0  0  0  0  0  0
   -4.4661    1.2234   -0.2220 C   0  0  0  0  0  0  0  0  0  0  0  0
   -2.6793   -2.6156    0.7551 C   0  0  0  0  0  0  0  0  0  0  0  0
   -5.3634   -0.2673    1.3364 C   0  0  0  0  0  0  0  0  0  0  0  0
    1.5940   -2.5170    0.2062 C   0  0  0  0  0  0  0  0  0  0  0  0
   -6.7144    1.0378    0.0563 C   0  0  0  0  0  0  0  0  0  0  0  0
    3.0556   -2.2605    0.2667 C   0  0  0  0  0  0  0  0  0  0  0  0
    2.6154    1.6002   -1.3920 C   0  0  0  0  0  0  0  0  0  0  0  0
    3.2156    2.2956   -0.2257 C   0  0  0  0  0  0  0  0  0  0  0  0
   -8.0904    1.4660   -0.3266 C   0  0  0  0  0  0  0  0  0  0  0  0
    3.8927   -2.9759   -0.5645 C   0  0  0  0  0  0  0  0  0  0  0  0
    3.5301   -1.3145    1.1518 C   0  0  0  0  0  0  0  0  0  0  0  0
    4.5845    2.4635   -0.1815 C   0  0  0  0  0  0  0  0  0  0  0  0
    2.3859    2.7528    0.7777 C   0  0  0  0  0  0  0  0  0  0  0  0
    5.2654   -2.7348   -0.5079 C   0  0  0  0  0  0  0  0  0  0  0  0
    4.9029   -1.0735    1.2082 C   0  0  0  0  0  0  0  0  0  0  0  0
    5.7705   -1.7836    0.3783 C   0  0  0  0  0  0  0  0  0  0  0  0
    5.1485    3.1170    0.9142 C   0  0  0  0  0  0  0  0  0  0  0  0
    2.9501    3.4064    1.8733 C   0  0  0  0  0  0  0  0  0  0  0  0
    4.3314    3.5886    1.9415 C   0  0  0  0  0  0  0  0  0  0  0  0
   -2.9137   -0.4964    2.2038 H   0  0  0  0  0  0  0  0  0  0  0  0
   -2.1416    0.6271    1.1322 H   0  0  0  0  0  0  0  0  0  0  0  0
   -0.0396   -1.0908   -2.9246 H   0  0  0  0  0  0  0  0  0  0  0  0
    1.4342   -1.0692   -2.0002 H   0  0  0  0  0  0  0  0  0  0  0  0
    1.0612    1.0507   -3.2897 H   0  0  0  0  0  0  0  0  0  0  0  0
   -0.4173    1.3448   -2.3967 H   0  0  0  0  0  0  0  0  0  0  0  0
   -2.4067   -1.7218   -2.7036 H   0  0  0  0  0  0  0  0  0  0  0  0
   -2.4200    0.0368   -2.5371 H   0  0  0  0  0  0  0  0  0  0  0  0
   -3.6743   -0.9626   -1.7730 H   0  0  0  0  0  0  0  0  0  0  0  0
   -2.2683   -3.3550    0.0456 H   0  0  0  0  0  0  0  0  0  0  0  0
   -5.2953   -1.0237    2.1109 H   0  0  0  0  0  0  0  0  0  0  0  0
   -2.4985    1.9612   -0.3360 H   0  0  0  0  0  0  0  0  0  0  0  0
   -3.5582    2.4870   -1.5869 H   0  0  0  0  0  0  0  0  0  0  0  0
   -8.4041    2.3051    0.3011 H   0  0  0  0  0  0  0  0  0  0  0  0
   -8.1225    1.7805   -1.3745 H   0  0  0  0  0  0  0  0  0  0  0  0
   -8.8031    0.6454   -0.1974 H   0  0  0  0  0  0  0  0  0  0  0  0
    3.5128   -3.7153   -1.2632 H   0  0  0  0  0  0  0  0  0  0  0  0
    2.9057   -0.7590    1.8426 H   0  0  0  0  0  0  0  0  0  0  0  0
    5.2353    2.1015   -0.9716 H   0  0  0  0  0  0  0  0  0  0  0  0
    1.3075    2.6316    0.7658 H   0  0  0  0  0  0  0  0  0  0  0  0
    5.9410   -3.2868   -1.1549 H   0  0  0  0  0  0  0  0  0  0  0  0
    5.2976   -0.3382    1.9035 H   0  0  0  0  0  0  0  0  0  0  0  0
    6.8394   -1.5964    0.4231 H   0  0  0  0  0  0  0  0  0  0  0  0
    6.2241    3.2579    0.9679 H   0  0  0  0  0  0  0  0  0  0  0  0
    2.3144    3.7732    2.6740 H   0  0  0  0  0  0  0  0  0  0  0  0
    4.7706    4.0969    2.7948 H   0  0  0  0  0  0  0  0  0  0  0  0
  1 12  1  0  0  0  0
  1 20  1  0  0  0  0
  2 15  1  0  0  0  0
  2 23  1  0  0  0  0
  3 18  2  0  0  0  0
  4 20  2  0  0  0  0
  5 23  2  0  0  0  0
  6 10  1  0  0  0  0
  6 11  1  0  0  0  0
  6 18  1  0  0  0  0
  7 17  2  0  0  0  0
  7 21  1  0  0  0  0
  8 19  1  0  0  0  0
  8 21  2  0  0  0  0
  9 17  1  0  0  0  0
  9 47  1  0  0  0  0
  9 48  1  0  0  0  0
 10 12  2  0  0  0  0
 10 16  1  0  0  0  0
 11 14  1  0  0  0  0
 11 36  1  0  0  0  0
 11 37  1  0  0  0  0
 12 13  1  0  0  0  0
 13 15  1  0  0  0  0
 13 38  1  0  0  0  0
 13 39  1  0  0  0  0
 14 17  1  0  0  0  0
 14 19  2  0  0  0  0
 15 40  1  0  0  0  0
 15 41  1  0  0  0  0
 16 42  1  0  0  0  0
 16 43  1  0  0  0  0
 16 44  1  0  0  0  0
 18 45  1  0  0  0  0
 19 46  1  0  0  0  0
 20 22  1  0  0  0  0
 21 25  1  0  0  0  0
 22 26  2  0  0  0  0
 22 27  1  0  0  0  0
 23 24  1  0  0  0  0
 24 28  2  0  0  0  0
 24 29  1  0  0  0  0
 25 49  1  0  0  0  0
 25 50  1  0  0  0  0
 25 51  1  0  0  0  0
 26 30  1  0  0  0  0
 26 52  1  0  0  0  0
 27 31  2  0  0  0  0
 27 53  1  0  0  0  0
 28 33  1  0  0  0  0
 28 54  1  0  0  0  0
 29 34  2  0  0  0  0
 29 55  1  0  0  0  0
 30 32  2  0  0  0  0
 30 56  1  0  0  0  0
 31 32  1  0  0  0  0
 31 57  1  0  0  0  0
 32 58  1  0  0  0  0
 33 35  2  0  0  0  0
 33 59  1  0  0  0  0
 34 35  1  0  0  0  0
 34 60  1  0  0  0  0
 35 61  1  0  0  0  0
M  END
> <PUBCHEM_COMPOUND_CID>
3036235

> <PUBCHEM_CONFORMER_RMSD>
1.2

> <PUBCHEM_CONFORMER_DIVERSEORDER>
7
5
26
27
33
8
36
21
25
20
22
13
24
11
28
31
14
30
35
37
9
32
18
2
15
1
34
19
3
12
29
4
23
16
6
17
10

> <PUBCHEM_MMFF94_PARTIAL_CHARGES>
49
1 -0.24
10 -0.03
11 0.44
12 -0.04
13 0.14
14 -0.14
15 0.28
16 0.14
17 0.41
18 0.57
19 0.16
2 -0.43
20 0.62
21 0.48
22 0.09
23 0.63
24 0.09
25 0.14
26 -0.15
27 -0.15
28 -0.15
29 -0.15
3 -0.57
30 -0.15
31 -0.15
32 -0.15
33 -0.15
34 -0.15
35 -0.15
4 -0.57
45 0.06
46 0.15
47 0.4
48 0.4
5 -0.57
52 0.15
53 0.15
54 0.15
55 0.15
56 0.15
57 0.15
58 0.15
59 0.15
6 -0.47
60 0.15
61 0.15
7 -0.62
8 -0.62
9 -0.9

> <PUBCHEM_EFFECTIVE_ROTOR_COUNT>
12

> <PUBCHEM_PHARMACOPHORE_FEATURES>
8
1 3 acceptor
1 5 acceptor
1 9 donor
3 7 8 21 cation
3 7 9 17 cation
6 22 26 27 30 31 32 rings
6 24 28 29 33 34 35 rings
6 7 8 14 17 19 21 rings

> <PUBCHEM_HEAVY_ATOM_COUNT>
35

> <PUBCHEM_ATOM_DEF_STEREO_COUNT>
0

> <PUBCHEM_ATOM_UDEF_STEREO_COUNT>
0

> <PUBCHEM_BOND_DEF_STEREO_COUNT>
1

> <PUBCHEM_BOND_UDEF_STEREO_COUNT>
0

> <PUBCHEM_ISOTOPIC_ATOM_COUNT>
0

> <PUBCHEM_COMPONENT_COUNT>
1

> <PUBCHEM_CACTVS_TAUTO_COUNT>
3

> <PUBCHEM_CONFORMER_ID>
002E544B00000007

> <PUBCHEM_MMFF94_ENERGY>
125.5575

> <PUBCHEM_FEATURE_SELFOVERLAP>
40.732

> <PUBCHEM_SHAPE_FINGERPRINT>
10006869 2 18273211984799274781
10319926 262 17313110748403193921
11374522 58 18189611657378445178
11421498 54 13190621590568013174
12128747 34 18335421223058638444
12166972 35 17988078872730586107
12422481 6 18043785754776385936
12925494 130 18338512053270557235
13165053 68 18126555946238376327
13583140 156 18198910390491447057
13878862 14 18337373981732619221
14955137 171 18269277863696784966
19301679 30 17462868780372131835
20429552 37 18334292037501463388
21033648 29 17677036976715198341
21859007 373 17386556952633801381
22122407 14 18271255928265086185
23559900 14 18040725736311272823
3411729 13 18261675960777391716
4112364 45 18130784585662820561
437795 51 18408328778993618228
563151 74 18200018664290571128
6086070 43 18060140980673601293

> <PUBCHEM_SHAPE_MULTIPOLES>
680.73
16.13
4.56
1.9
23.83
0.83
0.63
6.14
-3.78
-7.57
-1.59
-0.45
0.51
1.85

> <PUBCHEM_SHAPE_SELFOVERLAP>
1441.253

> <PUBCHEM_SHAPE_VOLUME>
380.6

> <PUBCHEM_COORDINATE_TYPE>
2
5
10

$$$$
